Version 4
SHEET 1 1056 680
WIRE 128 80 48 80
WIRE 288 80 208 80
WIRE 432 80 288 80
WIRE 48 112 48 80
WIRE 288 112 288 80
WIRE 432 112 432 80
WIRE 736 112 656 112
WIRE 864 112 864 32
WIRE 864 112 816 112
WIRE 928 112 864 112
WIRE 1040 112 1008 112
WIRE 656 144 656 112
WIRE 864 160 864 112
WIRE 48 224 48 192
WIRE 288 224 288 176
WIRE 432 224 432 192
WIRE 656 256 656 224
WIRE 864 256 864 224
WIRE 1040 256 1040 112
WIRE 160 400 48 400
WIRE 272 400 224 400
WIRE 416 400 352 400
WIRE 48 416 48 400
WIRE 48 528 48 496
WIRE 416 528 416 400
FLAG 48 224 0
FLAG 288 224 0
FLAG 432 224 0
FLAG 656 256 0
FLAG 864 256 0
FLAG 1040 256 0
FLAG 864 32 VREF
IOPIN 864 32 Out
FLAG 48 528 0
FLAG 416 528 0
SYMBOL voltage 48 96 R0
SYMATTR InstName V1
SYMATTR Value AC 9
SYMBOL res 224 64 R90
WINDOW 0 0 56 VBottom 2
WINDOW 3 32 56 VTop 2
SYMATTR InstName R1
SYMATTR Value 33k
SYMBOL res 448 208 R180
WINDOW 0 36 76 Left 2
WINDOW 3 36 40 Left 2
SYMATTR InstName R2
SYMATTR Value 22k
SYMBOL cap 272 112 R0
SYMATTR InstName C1
SYMATTR Value 1n
SYMBOL Voltage 656 128 R0
SYMATTR InstName V2
SYMATTR Value AC 9
SYMBOL Res 832 96 R90
WINDOW 0 0 56 VBottom 2
WINDOW 3 32 56 VTop 2
SYMATTR InstName R3
SYMATTR Value 68k
SYMBOL Res 1024 96 R90
WINDOW 0 0 56 VBottom 2
WINDOW 3 32 56 VTop 2
SYMATTR InstName R4
SYMATTR Value 22k
SYMBOL Cap 848 160 R0
SYMATTR InstName C2
SYMATTR Value 10”F
SYMBOL Voltage 48 400 R0
SYMATTR InstName V3
SYMATTR Value AC 1
SYMBOL Res 368 384 R90
WINDOW 0 0 56 VBottom 2
WINDOW 3 32 56 VTop 2
SYMATTR InstName R5
SYMATTR Value 10k
SYMBOL Cap 224 384 R90
WINDOW 0 0 32 VBottom 2
WINDOW 3 32 32 VTop 2
SYMATTR InstName C3
SYMATTR Value 1”
TEXT 40 272 Left 2 !.ac1 dec 999999 100 1Meg
TEXT 128 528 Left 2 !.ac dec 100 1 100k
TEXT 720 304 Left 2 !.ac2 dec 100 1 100k
